8

C         -1.10576       -0.51172        0.10732
C          0.22425       -0.42475        0.04381
C          0.90994        0.89084       -0.14659
H         -1.58004       -1.47789        0.24599
H         -1.73045        0.37246        0.02239
H          0.82478       -1.32476        0.13166
H          0.29635        1.81243       -0.23661
H          2.01875        0.89158       -0.19064
