60
bucky ball
C         -0.03131       -0.10464       -3.54806
C         -1.16704        0.75720       -3.26579
C         -0.65560        2.04474       -2.82665
C          0.79626        1.97869       -2.83752
C          1.18207        0.65033       -3.28336
C          2.28761        0.01698       -2.71429
C          3.05328        0.68581       -1.67566
C          2.68286        1.96131       -1.24755
C          1.53138        2.62084       -1.84034
C          0.84519        3.35573       -0.79084
C         -0.54873        3.41915       -0.78041
C         -1.31440        2.75031       -1.81904
C         -2.51202        2.19766       -1.20868
C         -3.00308        0.96135       -1.63034
C         -2.31690        0.22647       -2.67983
C         -2.37880       -1.18804       -2.35175
C         -3.10323       -1.32728       -1.09950
C         -3.48904        0.00108       -0.65366
C         -3.46457        0.31528        0.70569
C         -2.95313        1.60282        1.14482
C         -2.48654        2.52493        0.20713
C         -1.27317        3.27981        0.47180
C         -0.57478        3.08262        1.66366
C          0.87708        3.01657        1.65279
C          1.57261        3.15034        0.45051
C          2.70834        2.28859        0.16826
C          3.10323        1.32728        1.09950
C          3.48904       -0.00108        0.65366
C          3.46457       -0.31528       -0.70569
C          2.95313       -1.60282       -1.14482
C          2.48654       -2.52493       -0.20713
C          2.51202       -2.19766        1.20868
C          3.00308       -0.96135        1.63034
C          2.31690       -0.22647        2.67983
C          2.37880        1.18804        2.35175
C          1.28837        2.01548        2.62276
C          0.09075        1.46282        3.23312
C         -1.06073        2.12235        2.64034
C         -2.22571        1.39752        2.38621
C         -2.28761       -0.01698        2.71429
C         -3.05328       -0.68581        1.67566
C         -2.68286       -1.96131        1.24755
C         -2.70834       -2.28859       -0.16826
C         -1.57261       -3.15034       -0.45051
C         -0.84519       -3.35573        0.79084
C         -1.53138       -2.62084        1.84034
C         -0.79626       -1.97869        2.83752
C         -1.18207       -0.65033        3.28336
C          0.03131        0.10464        3.54806
C          1.16704       -0.75720        3.26579
C          0.65560       -2.04474        2.82665
C          1.31440       -2.75031        1.81904
C          0.54873       -3.41915        0.78041
C          1.27317       -3.27981       -0.47180
C          0.57478       -3.08262       -1.66366
C         -0.87708       -3.01657       -1.65279
C         -1.28837       -2.01548       -2.62276
C         -0.09075       -1.46282       -3.23312
C          1.06073       -2.12235       -2.64034
C          2.22571       -1.39752       -2.38621
