10
cyclopentadienyl
C          1.12013        0.39316        0.05498
C          0.69019       -0.91806       -0.00064
C         -0.69306       -0.96070       -0.00238
C         -1.20309        0.32154        0.05205
C         -0.06982        1.27520        0.09246
H          2.15414        0.71034        0.06839
H          1.34523       -1.77825       -0.03716
H         -1.29378       -1.85959       -0.04050
H         -2.25470        0.57444        0.06282
H         -0.10403        2.38305        0.13947
